#---- Device : LM310 ----
start DEVICE_INFO
    MODEL_TYPE=585
end DEVICE_INFO
start RAW_SPICE
EXT_NODES="2 55 7 4"
RAW_SPICE="\
* +VIN=2 -VIN=3(not connected) VOUT=55 V+=7 V-=4
* unit gain buffer
IB 0 2 2E-9
VOF 2 1 2.5E-3
RI 1 5 0.1E3
G1 0 8 1 5 1
R1 8 0 1.333
C1 8 0 18.615E-9
G2 0 9 8 0 1
R2 9 0 1
C2 9 0 1.5E-9
G3 0 10 9 0 0.6667E3
R3 10 0 1
D1 10 11 DB1
D2 12 10 DB1
V1 11 0 4.7
V2 0 12 3.65
G4 0 13 10 0 1.5E-3
R4 13 0 4995.66E6
C4 13 0 0.2E-9
D3 13 14 DB1
D4 15 13 DB1
V3 7 14 2.71
V4 15 4 2.71
E1 5 0 13 0 1
RO1 5 0 100E6
GO 0 6 5 0 1.846
RO2 6 0 .5417
RP 7 4 7.69E3
.MODEL DB1 D IS=10E-15
* spectre: + IMAX=1000
*Begin for debug
DD8 6 99 M1M310
.MODEL M1M310 D N=300.000000m
* spectre: + IMAX=1000
DD7 99 6 M1M310
RR10 0 55 10.000000MEG TC=0 0
EV14 99 0 55 0 1
RR9 6 55 10 TC=0 0
*End for debug"
end RAW_SPICE
start NODES
    TERM(+IN)=2
    TERM(OUT)=55
    TERM(+Vss)=7
    TERM(-Vss)=4
end NODES
start PARAMETER SET MAX_OPS
    VSS=36 VIN=15 ISS=0.004 PD=0.5 TJ=85 RJC=45 RCA=105
end PARAMETER SET MAX_OPS
