#---- Device = LF356_L 
start DEVICE_INFO
    MODEL_TYPE=538
end DEVICE_INFO

start RAW_SPICE
EXT_NODES="1 36 15 20 12"
RAW_SPICE="\
*START OF DECK
*     +IN -IN OUT +Vss -Vss
*node: 1   36  15  20   12
*------input stage-------
VOSBAL  7  29  3.00000000e-04
EU1     8  1 20 12 1e-05
EU2     8  7  5 12 -1
RB1     12 10 1  TC= 3.333333e-04 0.000000e+00
IB4     10 12 1.000000e-06
RB3     12  5 8743.17  TC= 1.66666667e-03 0.00000000e+00
IB3     12  5 3.431250e-07
G1      12  1 10  12 3.150000e-05
G2      12 36 10  12 2.850000e-05
RDM    36 29 1.000000e+12
RCM    31 13 2.000000e+11
CDM    36 29 3.000000e-12
G5     31 13 36 31 5e-12
G6     31 13  1 31 5e-12
*------intermediate  stage-------
GDM    31 16 29 36 1
GCM    31 16 13 31 -5.00000000e-06
R1     31 16 2.63631984e+02
C1     31 16 2.22823e-10
VCP    23 31 100
VCM    24 31 -100
DD1    16 23 MD2
.MODEL MD2 D XTI=1.000000p
* spectre: + IMAX=1000
DD2    24 16 MD2
G3     31  6 16 31 -2.38331678e-06
R2     31  6 100000
C2     11  6 2e-11
RP1    31 20 7500
RP2    31 12 7500
*------output  stage-------
G4     31 11 6 31 -5.51737136e+01
ROUT   31 11 60
DD3    11  9 MD3
.MODEL MD3 D IS=10.0f XTI=1.0p N= 1.962456e+00
* spectre: + IMAX=1000
DD4     9 11 MD4
.MODEL MD4 D IS=10.0f XTI=1.0p N= 1.962463e+00
* spectre: + IMAX=1000
EU6     9 31 2 31 1
RO1    11 26 20
FF1    31 28 VFF1  1
VFF1   26 2  0.0
FF2    31 20 VFF2  -1
VFF2   33 31 0.0
FF3    12 31 VFF3  -1
VFF3   31 27 0.0
DD8    27 28 MID
DD7    28 33 MID
.MODEL MID D XTI=1.000000f N=1 IS=10.000000f
* spectre: + IMAX=1000
VP     20 22 -2.22865
VM     21 12 -2.22865
DD5    25 22 MID
DD6    21 17 MID
VP1    20 30 2.77378
VM1    32 12 2.77378
DD9     2 30 MD9
DD10   32 15 MD9
.MODEL MD9 D XTI=1.000000f N=1 IS=10.000000f
* spectre: + IMAX=1000
HH1 25 2 POLY(2) VIC2 VIC1 0 700 0 550 0 0 0 0 0 0
HH2 2 17 POLY(2) VIC3 VIC1 0 -700 0 -550 0 0 0 0 0 0
VIC1   37 3 0.0
VIC2   2 14 0.0
VIC3   14 15 0.0
VPP   37 0 1
RPP   3 0 100.0K
RO3  15 20 200.0MEG
RO2  15 12 200.0MEG"
end RAW_SPICE

start NODES
    TERM(+IN)=1
    TERM(-IN)=36
    TERM(OUT)=15
    TERM(+Vss)=20
    TERM(-Vss)=12
end NODES

start PARAMETER SET MAX_OPS
VDIFF=30
VSUPM=36
VCCMAX=18
VEEMAX=-18
VPMAX=.1
VPMIN=.1
VMMAX=.1
VMMIN=.1
end PARAMETER SET MAX_OPS
